/*--------------------------------*- C++ -*----------------------------------*\
  =========                 |
  \\      /  F ield         | OpenFOAM: The Open Source CFD Toolbox
   \\    /   O peration     | Website:  https://openfoam.org
    \\  /    A nd           | Version:  dev
     \\/     M anipulation  |

   OpenFOAM for Windows 20.09 (v1)
   Built by CFD Support, www.cfdsupport.com (based on Symscape).
\*---------------------------------------------------------------------------*/
FoamFile
{
    version     2.0;
    format      ascii;
    class       volScalarField;
    location    "0";
    object      epsilon;
}
// * * * * * * * * * * * * * * * * * * * * * * * * * * * * * * * * * * * * * //

dimensions      [0 2 -3 0 0 0 0];

internalField   uniform 0.003253;

boundaryField
{
    bed
    {
        type            epsilonWallFunction;
        value           uniform 0.003253;
    }
    inletF
    {
        type            fixedValue;
        value           uniform 0.003253;
    }
    inletS
    {
        type            fixedValue;
        value           uniform 0.003253;
    }
    outlet
    {
        type            zeroGradient;
    }
    top
    {
        type            zeroGradient;
    }
    walls
    {
        type            epsilonWallFunction;
        value           uniform 0.003253;
    }
}


// ************************************************************************* //
