/*--------------------------------*- C++ -*----------------------------------*\
  =========                 |
  \\      /  F ield         | OpenFOAM: The Open Source CFD Toolbox
   \\    /   O peration     | Website:  https://openfoam.org
    \\  /    A nd           | Version:  8
     \\/     M anipulation  |
\*---------------------------------------------------------------------------*/
FoamFile
{
    version     2.0;
    format      ascii;
    class       dictionary;
    location    "system";
    object      controlDict;
}
// * * * * * * * * * * * * * * * * * * * * * * * * * * * * * * * * * * * * * //
application     pimpleFoam;

startFrom       latestTime;

startTime       0;

stopAt          endTime;

endTime         16600;

deltaT          0.01;

writeControl    adjustableRunTime;

writeInterval   0.5;

purgeWrite      0;

writeFormat     ascii;

writePrecision  6;

writeCompression off;

timeFormat      general;

timePrecision   6;
adjustTimeStep  no;//yes

maxCo           1;

runTimeModifiable true;
functions
{
    
  Yplus
   {
        type                yPlus;
        libs                ("libfieldFunctionObjects.so");
        executeControl      timeStep;
        executeInterval     2;
        writeControl        writeTime;
    }


}




// ************************************************************************* //
